$DATA1 SOURCE='HSPICE' VERSION='P-2019.06-SP1-1' PARAM_COUNT=0
.TITLE ' *****CMOS INVERTER******'
 delaylh          delayhl          averagepower     rise_time       
 fall_time        supplycurrent    staticpower      temper          
 alter#          
  6.5574e-12       1.2353e-11       7.9935e-08       3.3764e-11     
  3.3853e-11      -8.9219e-08       8.9219e-08        25.00000      
1               
