$DATA1 SOURCE='HSPICE' VERSION='P-2019.06-SP1-1' PARAM_COUNT=0
.TITLE ' *****CMOS INVERTER******'
 delaylh          delayhl          rise_time        fall_time       
 averagepower     supplycurrent    staticpower      temper          
 alter#          
  2.3146e-11       1.7331e-11       4.4049e-11       3.3545e-11     
  5.4274e-08      -5.1266e-08       5.1266e-08        25.00000      
1               
